Circuit: * C:\Users\Mike Klopfer\Desktop\GSR11.asc

Direct Newton iteration failed to find .op point.  (Use ".option noopiter" to skip.)
Starting Gmin stepping
Gmin = 10
Gmin = 1.07374
Gmin = 0.115292
Gmin = 0.0123794
Gmin = 0.00132923
Gmin = 0.000142725
Gmin = 1.5325e-005
Gmin = 1.6455e-006
Gmin = 1.76685e-007
Gmin = 1.89714e-008
Gmin = 2.03704e-009
Gmin = 2.18725e-010
Gmin = 2.34854e-011
Gmin = 2.52173e-012
Gmin = 2.70769e-013
Gmin = 0
Gmin stepping succeeded in finding the operating point.

.step r=10
.step r=100
.step r=1000
.step r=10000
.step r=100000

Date: Sun Dec 03 09:42:29 2017
Total elapsed time: 0.388 seconds.

tnom = 27
temp = 27
method = modified trap
totiter = 932
traniter = 556
tranpoints = 279
accept = 279
rejected = 0
matrix size = 9
fillins = 5
solver = Normal
Matrix Compiler1: 1.62 KB object code size  0.6/0.4/[0.2]
Matrix Compiler2: off  [0.3]/0.4/0.8


